! CHEMKIN II file produced by REMARC for T =  600.00 - 5000.00 K and P =   0.50 atm
! Rate constant units are: s, cm, molecules, kJ/mole
   ELEMENTS H C FE O 
   END
   SPECIES
   H    CH3    CH4 
   END

   REACTIONS  KJOULES/MOLE  MOLECULES

   END 
